test/data/three_phase/ieee_four_bus_underground_step_up/result.csv
# result.csv run at 2000-01-01 00:00:00 EST on 12 powerflow objects (not all are nodes)
node_name,voltA_real,voltA_imag,voltB_real,voltB_imag,voltC_real,voltC_imag
node1,2401.777000,0.000000,-1200.889000,-2080.000000,-1200.889000,2080.000000
node2,2309.151299,-49.139274,-1197.131990,-1975.214170,-1112.020293,2024.353446
node3,6921.118981,-148.333012,-3589.021088,-5919.698718,-3332.100841,6068.031735
load4,6896.398987,-161.447327,-3588.018415,-5891.733422,-3308.383515,6053.180755
